/*--------------------------------*- C++ -*----------------------------------*\
| =========                 |                                                 |
| \\      /  F ield         | OpenFOAM: The Open Source CFD Toolbox           |
|  \\    /   O peration     | Version:  5                                     |
|   \\  /    A nd           | Web:      www.OpenFOAM.org                      |
|    \\/     M anipulation  |                                                 |
\*---------------------------------------------------------------------------*/
FoamFile
{
    version     2.0;
    format      ascii;
    class       dictionary;
    object      thermophysicalProperties;
}
// * * * * * * * * * * * * * * * * * * * * * * * * * * * * * * * * * * * * * //

thermoType
{
    type            heRhoThermo;
    mixture         pureMixture;
    transport       polynomial;
    thermo          hPolynomial;
    equationOfState icoPolynomial;
    specie          specie;
    energy          sensibleEnthalpy;
}


mixture
{
    // coefficients for water

    specie
    {
        molWeight       18;
    }
    equationOfState
    {
        rhoCoeffs<8>    (757.621  0 0 0 0 0 0 0);
    }
    thermodynamics
    {
        Hf              0;
        Sf              0;
        CpCoeffs<8>     (5172.38 0 0 0 0 0 0 0 );
    }
    transport
    {
        muCoeffs<8>     ( 9.50015E-05  0 0 0 0 0 0 0 );
        kappaCoeffs<8>  ( 0.589136 0 0 0 0 0 0 0 );
    }
}

// ************************************************************************* //
